[etherlink]
type=COSSIMEtherLink
RxPacketTime=100us
SynchTime=1ms
TotalNodes=2
delay=0
delay_var=0
dump=Null
eventq_index=0
nodeNum=1
speed=8000.000000
sys_clk=1GHz
ticksPerNanoSecond=1000.000000
interface=testsys.realview.ethernet.interface

[root]
type=Root
children=etherlink testsys
eventq_index=0
full_system=true
sim_quantum=0
time_sync_enable=false
time_sync_period=100000000000
time_sync_spin_threshold=100000000

[testsys]
type=LinuxArmSystem
children=bridge cf0 clk_domain cpu cpu_clk_domain cpu_voltage_domain dvfs_handler intrctrl iobridge iobus mem_ctrls membus realview terminal vncserver voltage_domain
atags_addr=134217728
boot_loader=/home/apollon/APOLLON/kernels/binaries/boot_emm.arm
boot_osflags=earlyprintk=pl011,0x1c090000 console=ttyAMA0 lpj=19988480 norandmaps rw loglevel=8 mem=512MB root=/dev/sda1
cache_line_size=64
clk_domain=testsys.clk_domain
default_p_state=UNDEFINED
dtb_filename=/home/apollon/APOLLON/kernels/binaries/vexpress.aarch32.ll_20131205.0-gem5.1cpu.dtb
early_kernel_symbols=false
enable_context_switch_stats_dump=false
eventq_index=0
exit_on_work_items=false
flags_addr=469827632
gic_cpu_addr=738205696
have_large_asid_64=false
have_lpae=true
have_security=false
have_virtualization=false
highest_el_is_64=false
init_param=0
kernel=/home/apollon/APOLLON/kernels/binaries/vmlinux.aarch32.Apollon
kernel_addr_check=true
load_addr_mask=268435455
load_offset=2147483648
m5ops_base=0
machine_type=VExpress_EMM
mem_mode=atomic
mem_ranges=2147483648:2684354559:0:0:0:0
memories=testsys.mem_ctrls testsys.realview.nvmem testsys.realview.vram
mmap_using_noreserve=false
multi_proc=true
multi_thread=false
num_work_ids=16
p_state_clk_gate_bins=20
p_state_clk_gate_max=1000000000000
p_state_clk_gate_min=1000
panic_on_oops=false
panic_on_panic=false
phys_addr_range_64=40
power_model=Null
readfile=/home/apollon/APOLLON/cgem5/configs/boot/COSSIM/script1.rcS
reset_addr_64=0
symbolfile=
thermal_components=
thermal_model=Null
work_begin_ckpt_count=0
work_begin_cpu_id_exit=-1
work_begin_exit_count=0
work_cpus_ckpt_count=0
work_end_ckpt_count=0
work_end_exit_count=0
work_item_id=-1
system_port=testsys.membus.slave[1]

[testsys.bridge]
type=Bridge
clk_domain=testsys.clk_domain
default_p_state=UNDEFINED
delay=50000
eventq_index=0
p_state_clk_gate_bins=20
p_state_clk_gate_max=1000000000000
p_state_clk_gate_min=1000
power_model=Null
ranges=788529152:805306367:0:0:0:0 805306368:1073741823:0:0:0:0 1073741824:1610612735:0:0:0:0 402653184:469762047:0:0:0:0 469762048:536870911:0:0:0:0
req_size=16
resp_size=16
master=testsys.iobus.slave[0]
slave=testsys.membus.master[0]

[testsys.cf0]
type=IdeDisk
children=image
delay=1000000
driveID=master
eventq_index=0
image=testsys.cf0.image

[testsys.cf0.image]
type=CowDiskImage
children=child
child=testsys.cf0.image.child
eventq_index=0
image_file=
read_only=false
table_size=65536

[testsys.cf0.image.child]
type=RawDiskImage
eventq_index=0
image_file=/home/apollon/APOLLON/kernels/disks/linux-aarch32-ael.img
read_only=true

[testsys.clk_domain]
type=SrcClockDomain
clock=1000
domain_id=-1
eventq_index=0
init_perf_level=0
voltage_domain=testsys.voltage_domain

[testsys.cpu]
type=AtomicSimpleCPU
children=dstage2_mmu dtb interrupts isa istage2_mmu itb tracer
branchPred=Null
checker=Null
clk_domain=testsys.cpu_clk_domain
cpu_id=0
default_p_state=UNDEFINED
do_checkpoint_insts=true
do_quiesce=true
do_statistics_insts=true
dstage2_mmu=testsys.cpu.dstage2_mmu
dtb=testsys.cpu.dtb
eventq_index=0
fastmem=false
function_trace=false
function_trace_start=0
interrupts=testsys.cpu.interrupts
isa=testsys.cpu.isa
istage2_mmu=testsys.cpu.istage2_mmu
itb=testsys.cpu.itb
max_insts_all_threads=0
max_insts_any_thread=0
max_loads_all_threads=0
max_loads_any_thread=0
numThreads=1
p_state_clk_gate_bins=20
p_state_clk_gate_max=1000000000000
p_state_clk_gate_min=1000
power_model=Null
profile=0
progress_interval=0
simpoint_start_insts=
simulate_data_stalls=false
simulate_inst_stalls=false
socket_id=0
switched_out=false
syscallRetryLatency=10000
system=testsys
tracer=testsys.cpu.tracer
wait_for_remote_gdb=false
width=1
workload=
dcache_port=testsys.membus.slave[4]
icache_port=testsys.membus.slave[3]

[testsys.cpu.dstage2_mmu]
type=ArmStage2MMU
children=stage2_tlb
eventq_index=0
stage2_tlb=testsys.cpu.dstage2_mmu.stage2_tlb
sys=testsys
tlb=testsys.cpu.dtb

[testsys.cpu.dstage2_mmu.stage2_tlb]
type=ArmTLB
children=walker
eventq_index=0
is_stage2=true
size=32
sys=testsys
walker=testsys.cpu.dstage2_mmu.stage2_tlb.walker

[testsys.cpu.dstage2_mmu.stage2_tlb.walker]
type=ArmTableWalker
clk_domain=testsys.cpu_clk_domain
default_p_state=UNDEFINED
eventq_index=0
is_stage2=true
num_squash_per_cycle=2
p_state_clk_gate_bins=20
p_state_clk_gate_max=1000000000000
p_state_clk_gate_min=1000
power_model=Null
sys=testsys

[testsys.cpu.dtb]
type=ArmTLB
children=walker
eventq_index=0
is_stage2=false
size=64
sys=testsys
walker=testsys.cpu.dtb.walker

[testsys.cpu.dtb.walker]
type=ArmTableWalker
clk_domain=testsys.cpu_clk_domain
default_p_state=UNDEFINED
eventq_index=0
is_stage2=false
num_squash_per_cycle=2
p_state_clk_gate_bins=20
p_state_clk_gate_max=1000000000000
p_state_clk_gate_min=1000
power_model=Null
sys=testsys
port=testsys.membus.slave[6]

[testsys.cpu.interrupts]
type=ArmInterrupts
eventq_index=0

[testsys.cpu.isa]
type=ArmISA
decoderFlavour=Generic
eventq_index=0
fpsid=1090793632
id_aa64afr0_el1=0
id_aa64afr1_el1=0
id_aa64dfr0_el1=1052678
id_aa64dfr1_el1=0
id_aa64isar0_el1=0
id_aa64isar1_el1=0
id_aa64mmfr0_el1=15728642
id_aa64mmfr1_el1=0
id_isar0=34607377
id_isar1=34677009
id_isar2=555950401
id_isar3=17899825
id_isar4=268501314
id_isar5=0
id_mmfr0=270536963
id_mmfr1=0
id_mmfr2=19070976
id_mmfr3=34611729
midr=1091551472
pmu=Null
system=testsys
vecRegRenameMode=Full

[testsys.cpu.istage2_mmu]
type=ArmStage2MMU
children=stage2_tlb
eventq_index=0
stage2_tlb=testsys.cpu.istage2_mmu.stage2_tlb
sys=testsys
tlb=testsys.cpu.itb

[testsys.cpu.istage2_mmu.stage2_tlb]
type=ArmTLB
children=walker
eventq_index=0
is_stage2=true
size=32
sys=testsys
walker=testsys.cpu.istage2_mmu.stage2_tlb.walker

[testsys.cpu.istage2_mmu.stage2_tlb.walker]
type=ArmTableWalker
clk_domain=testsys.cpu_clk_domain
default_p_state=UNDEFINED
eventq_index=0
is_stage2=true
num_squash_per_cycle=2
p_state_clk_gate_bins=20
p_state_clk_gate_max=1000000000000
p_state_clk_gate_min=1000
power_model=Null
sys=testsys

[testsys.cpu.itb]
type=ArmTLB
children=walker
eventq_index=0
is_stage2=false
size=64
sys=testsys
walker=testsys.cpu.itb.walker

[testsys.cpu.itb.walker]
type=ArmTableWalker
clk_domain=testsys.cpu_clk_domain
default_p_state=UNDEFINED
eventq_index=0
is_stage2=false
num_squash_per_cycle=2
p_state_clk_gate_bins=20
p_state_clk_gate_max=1000000000000
p_state_clk_gate_min=1000
power_model=Null
sys=testsys
port=testsys.membus.slave[5]

[testsys.cpu.tracer]
type=ExeTracer
eventq_index=0

[testsys.cpu_clk_domain]
type=SrcClockDomain
clock=500
domain_id=-1
eventq_index=0
init_perf_level=0
voltage_domain=testsys.cpu_voltage_domain

[testsys.cpu_voltage_domain]
type=VoltageDomain
eventq_index=0
voltage=1.000000

[testsys.dvfs_handler]
type=DVFSHandler
domains=
enable=false
eventq_index=0
sys_clk_domain=testsys.clk_domain
transition_latency=100000000

[testsys.intrctrl]
type=IntrControl
eventq_index=0
sys=testsys

[testsys.iobridge]
type=Bridge
clk_domain=testsys.clk_domain
default_p_state=UNDEFINED
delay=50000
eventq_index=0
p_state_clk_gate_bins=20
p_state_clk_gate_max=1000000000000
p_state_clk_gate_min=1000
power_model=Null
ranges=2147483648:2684354559:0:0:0:0
req_size=16
resp_size=16
master=testsys.membus.slave[2]
slave=testsys.iobus.master[23]

[testsys.iobus]
type=NoncoherentXBar
clk_domain=testsys.clk_domain
default_p_state=UNDEFINED
eventq_index=0
forward_latency=1
frontend_latency=2
p_state_clk_gate_bins=20
p_state_clk_gate_max=1000000000000
p_state_clk_gate_min=1000
power_model=Null
response_latency=2
use_default_range=false
width=16
master=testsys.realview.uart.pio testsys.realview.realview_io.pio testsys.realview.pci_host.pio testsys.realview.timer0.pio testsys.realview.timer1.pio testsys.realview.clcd.pio testsys.realview.kmi0.pio testsys.realview.kmi1.pio testsys.realview.cf_ctrl.pio testsys.realview.rtc.pio testsys.realview.l2x0_fake.pio testsys.realview.uart1_fake.pio testsys.realview.uart2_fake.pio testsys.realview.uart3_fake.pio testsys.realview.sp810_fake.pio testsys.realview.watchdog_fake.pio testsys.realview.aaci_fake.pio testsys.realview.lan_fake.pio testsys.realview.usb_fake.pio testsys.realview.mmc_fake.pio testsys.realview.energy_ctrl.pio testsys.realview.ide.pio testsys.realview.ethernet.pio testsys.iobridge.slave
slave=testsys.bridge.master testsys.realview.clcd.dma testsys.realview.cf_ctrl.dma testsys.realview.ide.dma testsys.realview.ethernet.dma

[testsys.mem_ctrls]
type=DRAMCtrl
IDD0=0.055000
IDD02=0.000000
IDD2N=0.032000
IDD2N2=0.000000
IDD2P0=0.000000
IDD2P02=0.000000
IDD2P1=0.032000
IDD2P12=0.000000
IDD3N=0.038000
IDD3N2=0.000000
IDD3P0=0.000000
IDD3P02=0.000000
IDD3P1=0.038000
IDD3P12=0.000000
IDD4R=0.157000
IDD4R2=0.000000
IDD4W=0.125000
IDD4W2=0.000000
IDD5=0.235000
IDD52=0.000000
IDD6=0.020000
IDD62=0.000000
VDD=1.500000
VDD2=0.000000
activation_limit=4
addr_mapping=RoRaBaCoCh
bank_groups_per_rank=0
banks_per_rank=8
burst_length=8
channels=1
clk_domain=testsys.clk_domain
conf_table_reported=true
default_p_state=UNDEFINED
device_bus_width=8
device_rowbuffer_size=1024
device_size=536870912
devices_per_rank=8
dll=true
eventq_index=0
in_addr_map=true
kvm_map=true
max_accesses_per_row=16
mem_sched_policy=frfcfs
min_writes_per_switch=16
null=false
p_state_clk_gate_bins=20
p_state_clk_gate_max=1000000000000
p_state_clk_gate_min=1000
page_policy=open_adaptive
power_model=Null
range=2147483648:2684354559:6:19:0:0
ranks_per_channel=2
read_buffer_size=32
static_backend_latency=10000
static_frontend_latency=10000
tBURST=5000
tCCD_L=0
tCK=1250
tCL=13750
tCS=2500
tRAS=35000
tRCD=13750
tREFI=7800000
tRFC=260000
tRP=13750
tRRD=6000
tRRD_L=0
tRTP=7500
tRTW=2500
tWR=15000
tWTR=7500
tXAW=30000
tXP=6000
tXPDLL=0
tXS=270000
tXSDLL=0
write_buffer_size=64
write_high_thresh_perc=85
write_low_thresh_perc=50
port=testsys.membus.master[6]

[testsys.membus]
type=CoherentXBar
children=badaddr_responder snoop_filter
clk_domain=testsys.clk_domain
default_p_state=UNDEFINED
eventq_index=0
forward_latency=4
frontend_latency=3
p_state_clk_gate_bins=20
p_state_clk_gate_max=1000000000000
p_state_clk_gate_min=1000
point_of_coherency=true
power_model=Null
response_latency=2
snoop_filter=testsys.membus.snoop_filter
snoop_response_latency=4
system=testsys
use_default_range=false
width=16
default=testsys.membus.badaddr_responder.pio
master=testsys.bridge.slave testsys.realview.nvmem.port testsys.realview.gic.pio testsys.realview.vgic.pio testsys.realview.local_cpu_timer.pio testsys.realview.hdlcd.pio testsys.mem_ctrls.port
slave=testsys.realview.hdlcd.dma testsys.system_port testsys.iobridge.master testsys.cpu.icache_port testsys.cpu.dcache_port testsys.cpu.itb.walker.port testsys.cpu.dtb.walker.port

[testsys.membus.badaddr_responder]
type=IsaFake
clk_domain=testsys.clk_domain
default_p_state=UNDEFINED
eventq_index=0
fake_mem=false
p_state_clk_gate_bins=20
p_state_clk_gate_max=1000000000000
p_state_clk_gate_min=1000
pio_addr=0
pio_latency=100000
pio_size=8
power_model=Null
ret_bad_addr=true
ret_data16=65535
ret_data32=4294967295
ret_data64=18446744073709551615
ret_data8=255
system=testsys
update_data=false
warn_access=warn
pio=testsys.membus.default

[testsys.membus.snoop_filter]
type=SnoopFilter
eventq_index=0
lookup_latency=1
max_capacity=8388608
system=testsys

[testsys.realview]
type=RealView
children=aaci_fake cf_ctrl clcd dcc energy_ctrl ethernet generic_timer gic hdlcd ide kmi0 kmi1 l2x0_fake lan_fake local_cpu_timer mcc mmc_fake nvmem pci_host realview_io rtc sp810_fake timer0 timer1 uart uart1_fake uart2_fake uart3_fake usb_fake vgic vram watchdog_fake
eventq_index=0
intrctrl=testsys.intrctrl
system=testsys

[testsys.realview.aaci_fake]
type=AmbaFake
amba_id=0
clk_domain=testsys.clk_domain
default_p_state=UNDEFINED
eventq_index=0
ignore_access=false
p_state_clk_gate_bins=20
p_state_clk_gate_max=1000000000000
p_state_clk_gate_min=1000
pio_addr=470024192
pio_latency=100000
power_model=Null
system=testsys
pio=testsys.iobus.master[16]

[testsys.realview.cf_ctrl]
type=IdeController
BAR0=471465984
BAR0LegacyIO=true
BAR0Size=256
BAR1=471466240
BAR1LegacyIO=true
BAR1Size=4096
BAR2=1
BAR2LegacyIO=false
BAR2Size=8
BAR3=1
BAR3LegacyIO=false
BAR3Size=4
BAR4=1
BAR4LegacyIO=false
BAR4Size=16
BAR5=1
BAR5LegacyIO=false
BAR5Size=0
BIST=0
CacheLineSize=0
CapabilityPtr=0
CardbusCIS=0
ClassCode=1
Command=1
DeviceID=28945
ExpansionROM=0
HeaderType=0
InterruptLine=31
InterruptPin=1
LatencyTimer=0
LegacyIOBase=0
MSICAPBaseOffset=0
MSICAPCapId=0
MSICAPMaskBits=0
MSICAPMsgAddr=0
MSICAPMsgCtrl=0
MSICAPMsgData=0
MSICAPMsgUpperAddr=0
MSICAPNextCapability=0
MSICAPPendingBits=0
MSIXCAPBaseOffset=0
MSIXCAPCapId=0
MSIXCAPNextCapability=0
MSIXMsgCtrl=0
MSIXPbaOffset=0
MSIXTableOffset=0
MaximumLatency=0
MinimumGrant=0
PMCAPBaseOffset=0
PMCAPCapId=0
PMCAPCapabilities=0
PMCAPCtrlStatus=0
PMCAPNextCapability=0
PXCAPBaseOffset=0
PXCAPCapId=0
PXCAPCapabilities=0
PXCAPDevCap2=0
PXCAPDevCapabilities=0
PXCAPDevCtrl=0
PXCAPDevCtrl2=0
PXCAPDevStatus=0
PXCAPLinkCap=0
PXCAPLinkCtrl=0
PXCAPLinkStatus=0
PXCAPNextCapability=0
ProgIF=133
Revision=0
Status=640
SubClassCode=1
SubsystemID=0
SubsystemVendorID=0
VendorID=32902
clk_domain=testsys.clk_domain
config_latency=20000
ctrl_offset=2
default_p_state=UNDEFINED
disks=
eventq_index=0
host=testsys.realview.pci_host
io_shift=2
p_state_clk_gate_bins=20
p_state_clk_gate_max=1000000000000
p_state_clk_gate_min=1000
pci_bus=2
pci_dev=0
pci_func=0
pio_latency=30000
power_model=Null
system=testsys
dma=testsys.iobus.slave[2]
pio=testsys.iobus.master[8]

[testsys.realview.clcd]
type=Pl111
amba_id=1315089
clk_domain=testsys.clk_domain
default_p_state=UNDEFINED
enable_capture=true
eventq_index=0
gic=testsys.realview.gic
int_num=46
p_state_clk_gate_bins=20
p_state_clk_gate_max=1000000000000
p_state_clk_gate_min=1000
pio_addr=471793664
pio_latency=10000
pixel_clock=41667
power_model=Null
system=testsys
vnc=testsys.vncserver
dma=testsys.iobus.slave[1]
pio=testsys.iobus.master[5]

[testsys.realview.dcc]
type=SubSystem
children=osc_cpu osc_ddr osc_hsbm osc_pxl osc_smb osc_sys
eventq_index=0
thermal_domain=Null

[testsys.realview.dcc.osc_cpu]
type=RealViewOsc
dcc=0
device=0
eventq_index=0
freq=16667
parent=testsys.realview.realview_io
position=0
site=1
voltage_domain=testsys.voltage_domain

[testsys.realview.dcc.osc_ddr]
type=RealViewOsc
dcc=0
device=8
eventq_index=0
freq=25000
parent=testsys.realview.realview_io
position=0
site=1
voltage_domain=testsys.voltage_domain

[testsys.realview.dcc.osc_hsbm]
type=RealViewOsc
dcc=0
device=4
eventq_index=0
freq=25000
parent=testsys.realview.realview_io
position=0
site=1
voltage_domain=testsys.voltage_domain

[testsys.realview.dcc.osc_pxl]
type=RealViewOsc
dcc=0
device=5
eventq_index=0
freq=42105
parent=testsys.realview.realview_io
position=0
site=1
voltage_domain=testsys.voltage_domain

[testsys.realview.dcc.osc_smb]
type=RealViewOsc
dcc=0
device=6
eventq_index=0
freq=20000
parent=testsys.realview.realview_io
position=0
site=1
voltage_domain=testsys.voltage_domain

[testsys.realview.dcc.osc_sys]
type=RealViewOsc
dcc=0
device=7
eventq_index=0
freq=16667
parent=testsys.realview.realview_io
position=0
site=1
voltage_domain=testsys.voltage_domain

[testsys.realview.energy_ctrl]
type=EnergyCtrl
clk_domain=testsys.clk_domain
default_p_state=UNDEFINED
dvfs_handler=testsys.dvfs_handler
eventq_index=0
p_state_clk_gate_bins=20
p_state_clk_gate_max=1000000000000
p_state_clk_gate_min=1000
pio_addr=470286336
pio_latency=100000
power_model=Null
system=testsys
pio=testsys.iobus.master[20]

[testsys.realview.ethernet]
type=IGbE
BAR0=0
BAR0LegacyIO=false
BAR0Size=131072
BAR1=0
BAR1LegacyIO=false
BAR1Size=0
BAR2=0
BAR2LegacyIO=false
BAR2Size=0
BAR3=0
BAR3LegacyIO=false
BAR3Size=0
BAR4=0
BAR4LegacyIO=false
BAR4Size=0
BAR5=0
BAR5LegacyIO=false
BAR5Size=0
BIST=0
CacheLineSize=0
CapabilityPtr=0
CardbusCIS=0
ClassCode=2
Command=0
DeviceID=4213
ExpansionROM=0
HeaderType=0
InterruptLine=1
InterruptPin=1
LatencyTimer=0
LegacyIOBase=0
MSICAPBaseOffset=0
MSICAPCapId=0
MSICAPMaskBits=0
MSICAPMsgAddr=0
MSICAPMsgCtrl=0
MSICAPMsgData=0
MSICAPMsgUpperAddr=0
MSICAPNextCapability=0
MSICAPPendingBits=0
MSIXCAPBaseOffset=0
MSIXCAPCapId=0
MSIXCAPNextCapability=0
MSIXMsgCtrl=0
MSIXPbaOffset=0
MSIXTableOffset=0
MaximumLatency=0
MinimumGrant=255
PMCAPBaseOffset=0
PMCAPCapId=0
PMCAPCapabilities=0
PMCAPCtrlStatus=0
PMCAPNextCapability=0
PXCAPBaseOffset=0
PXCAPCapId=0
PXCAPCapabilities=0
PXCAPDevCap2=0
PXCAPDevCapabilities=0
PXCAPDevCtrl=0
PXCAPDevCtrl2=0
PXCAPDevStatus=0
PXCAPLinkCap=0
PXCAPLinkCtrl=0
PXCAPLinkStatus=0
PXCAPNextCapability=0
ProgIF=0
Revision=0
Status=0
SubClassCode=0
SubsystemID=4104
SubsystemVendorID=32902
VendorID=32902
clk_domain=testsys.clk_domain
config_latency=20000
default_p_state=UNDEFINED
eventq_index=0
fetch_comp_delay=10000
fetch_delay=10000
hardware_address=00:90:00:00:00:01
host=testsys.realview.pci_host
p_state_clk_gate_bins=20
p_state_clk_gate_max=1000000000000
p_state_clk_gate_min=1000
pci_bus=0
pci_dev=0
pci_func=0
phy_epid=896
phy_pid=680
pio_latency=30000
power_model=Null
rx_desc_cache_size=64
rx_fifo_size=393216
rx_write_delay=0
system=testsys
tx_desc_cache_size=64
tx_fifo_size=393216
tx_read_delay=0
wb_comp_delay=10000
wb_delay=10000
dma=testsys.iobus.slave[4]
interface=etherlink.interface
pio=testsys.iobus.master[22]

[testsys.realview.generic_timer]
type=GenericTimer
eventq_index=0
gic=testsys.realview.gic
int_phys=29
int_virt=27
system=testsys

[testsys.realview.gic]
type=Pl390
clk_domain=testsys.clk_domain
cpu_addr=738205696
cpu_pio_delay=10000
default_p_state=UNDEFINED
dist_addr=738201600
dist_pio_delay=10000
eventq_index=0
gem5_extensions=false
int_latency=10000
it_lines=128
p_state_clk_gate_bins=20
p_state_clk_gate_max=1000000000000
p_state_clk_gate_min=1000
platform=testsys.realview
power_model=Null
system=testsys
pio=testsys.membus.master[2]

[testsys.realview.hdlcd]
type=HDLcd
amba_id=1314816
clk_domain=testsys.clk_domain
default_p_state=UNDEFINED
enable_capture=true
eventq_index=0
gic=testsys.realview.gic
int_num=117
p_state_clk_gate_bins=20
p_state_clk_gate_max=1000000000000
p_state_clk_gate_min=1000
pio_addr=721420288
pio_latency=10000
pixel_buffer_size=2048
pixel_chunk=32
power_model=Null
pxl_clk=testsys.realview.dcc.osc_pxl
system=testsys
virt_refresh_rate=50000000000
vnc=testsys.vncserver
workaround_dma_line_count=true
workaround_swap_rb=true
dma=testsys.membus.slave[0]
pio=testsys.membus.master[5]

[testsys.realview.ide]
type=IdeController
BAR0=1
BAR0LegacyIO=false
BAR0Size=8
BAR1=1
BAR1LegacyIO=false
BAR1Size=4
BAR2=1
BAR2LegacyIO=false
BAR2Size=8
BAR3=1
BAR3LegacyIO=false
BAR3Size=4
BAR4=1
BAR4LegacyIO=false
BAR4Size=16
BAR5=1
BAR5LegacyIO=false
BAR5Size=0
BIST=0
CacheLineSize=0
CapabilityPtr=0
CardbusCIS=0
ClassCode=1
Command=0
DeviceID=28945
ExpansionROM=0
HeaderType=0
InterruptLine=2
InterruptPin=2
LatencyTimer=0
LegacyIOBase=0
MSICAPBaseOffset=0
MSICAPCapId=0
MSICAPMaskBits=0
MSICAPMsgAddr=0
MSICAPMsgCtrl=0
MSICAPMsgData=0
MSICAPMsgUpperAddr=0
MSICAPNextCapability=0
MSICAPPendingBits=0
MSIXCAPBaseOffset=0
MSIXCAPCapId=0
MSIXCAPNextCapability=0
MSIXMsgCtrl=0
MSIXPbaOffset=0
MSIXTableOffset=0
MaximumLatency=0
MinimumGrant=0
PMCAPBaseOffset=0
PMCAPCapId=0
PMCAPCapabilities=0
PMCAPCtrlStatus=0
PMCAPNextCapability=0
PXCAPBaseOffset=0
PXCAPCapId=0
PXCAPCapabilities=0
PXCAPDevCap2=0
PXCAPDevCapabilities=0
PXCAPDevCtrl=0
PXCAPDevCtrl2=0
PXCAPDevStatus=0
PXCAPLinkCap=0
PXCAPLinkCtrl=0
PXCAPLinkStatus=0
PXCAPNextCapability=0
ProgIF=133
Revision=0
Status=640
SubClassCode=1
SubsystemID=0
SubsystemVendorID=0
VendorID=32902
clk_domain=testsys.clk_domain
config_latency=20000
ctrl_offset=0
default_p_state=UNDEFINED
disks=testsys.cf0
eventq_index=0
host=testsys.realview.pci_host
io_shift=0
p_state_clk_gate_bins=20
p_state_clk_gate_max=1000000000000
p_state_clk_gate_min=1000
pci_bus=0
pci_dev=1
pci_func=0
pio_latency=30000
power_model=Null
system=testsys
dma=testsys.iobus.slave[3]
pio=testsys.iobus.master[21]

[testsys.realview.kmi0]
type=Pl050
amba_id=1314896
clk_domain=testsys.clk_domain
default_p_state=UNDEFINED
eventq_index=0
gic=testsys.realview.gic
int_delay=1000000
int_num=44
is_mouse=false
p_state_clk_gate_bins=20
p_state_clk_gate_max=1000000000000
p_state_clk_gate_min=1000
pio_addr=470155264
pio_latency=100000
power_model=Null
system=testsys
vnc=testsys.vncserver
pio=testsys.iobus.master[6]

[testsys.realview.kmi1]
type=Pl050
amba_id=1314896
clk_domain=testsys.clk_domain
default_p_state=UNDEFINED
eventq_index=0
gic=testsys.realview.gic
int_delay=1000000
int_num=45
is_mouse=true
p_state_clk_gate_bins=20
p_state_clk_gate_max=1000000000000
p_state_clk_gate_min=1000
pio_addr=470220800
pio_latency=100000
power_model=Null
system=testsys
vnc=testsys.vncserver
pio=testsys.iobus.master[7]

[testsys.realview.l2x0_fake]
type=IsaFake
clk_domain=testsys.clk_domain
default_p_state=UNDEFINED
eventq_index=0
fake_mem=false
p_state_clk_gate_bins=20
p_state_clk_gate_max=1000000000000
p_state_clk_gate_min=1000
pio_addr=739246080
pio_latency=100000
pio_size=4095
power_model=Null
ret_bad_addr=false
ret_data16=65535
ret_data32=4294967295
ret_data64=18446744073709551615
ret_data8=255
system=testsys
update_data=false
warn_access=
pio=testsys.iobus.master[10]

[testsys.realview.lan_fake]
type=IsaFake
clk_domain=testsys.clk_domain
default_p_state=UNDEFINED
eventq_index=0
fake_mem=false
p_state_clk_gate_bins=20
p_state_clk_gate_max=1000000000000
p_state_clk_gate_min=1000
pio_addr=436207616
pio_latency=100000
pio_size=65535
power_model=Null
ret_bad_addr=false
ret_data16=65535
ret_data32=4294967295
ret_data64=18446744073709551615
ret_data8=255
system=testsys
update_data=false
warn_access=
pio=testsys.iobus.master[17]

[testsys.realview.local_cpu_timer]
type=CpuLocalTimer
clk_domain=testsys.clk_domain
default_p_state=UNDEFINED
eventq_index=0
gic=testsys.realview.gic
int_num_timer=29
int_num_watchdog=30
p_state_clk_gate_bins=20
p_state_clk_gate_max=1000000000000
p_state_clk_gate_min=1000
pio_addr=738721792
pio_latency=100000
power_model=Null
system=testsys
pio=testsys.membus.master[4]

[testsys.realview.mcc]
type=SubSystem
children=osc_clcd osc_mcc osc_peripheral osc_system_bus temp_crtl
eventq_index=0
thermal_domain=Null

[testsys.realview.mcc.osc_clcd]
type=RealViewOsc
dcc=0
device=1
eventq_index=0
freq=42105
parent=testsys.realview.realview_io
position=0
site=0
voltage_domain=testsys.voltage_domain

[testsys.realview.mcc.osc_mcc]
type=RealViewOsc
dcc=0
device=0
eventq_index=0
freq=20000
parent=testsys.realview.realview_io
position=0
site=0
voltage_domain=testsys.voltage_domain

[testsys.realview.mcc.osc_peripheral]
type=RealViewOsc
dcc=0
device=2
eventq_index=0
freq=41667
parent=testsys.realview.realview_io
position=0
site=0
voltage_domain=testsys.voltage_domain

[testsys.realview.mcc.osc_system_bus]
type=RealViewOsc
dcc=0
device=4
eventq_index=0
freq=41667
parent=testsys.realview.realview_io
position=0
site=0
voltage_domain=testsys.voltage_domain

[testsys.realview.mcc.temp_crtl]
type=RealViewTemperatureSensor
dcc=0
device=0
eventq_index=0
parent=testsys.realview.realview_io
position=0
site=0
system=testsys

[testsys.realview.mmc_fake]
type=AmbaFake
amba_id=0
clk_domain=testsys.clk_domain
default_p_state=UNDEFINED
eventq_index=0
ignore_access=false
p_state_clk_gate_bins=20
p_state_clk_gate_max=1000000000000
p_state_clk_gate_min=1000
pio_addr=470089728
pio_latency=100000
power_model=Null
system=testsys
pio=testsys.iobus.master[19]

[testsys.realview.nvmem]
type=SimpleMemory
bandwidth=73.000000
clk_domain=testsys.clk_domain
conf_table_reported=false
default_p_state=UNDEFINED
eventq_index=0
in_addr_map=true
kvm_map=true
latency=30000
latency_var=0
null=false
p_state_clk_gate_bins=20
p_state_clk_gate_max=1000000000000
p_state_clk_gate_min=1000
power_model=Null
range=0:67108863:0:0:0:0
port=testsys.membus.master[1]

[testsys.realview.pci_host]
type=GenericPciHost
clk_domain=testsys.clk_domain
conf_base=805306368
conf_device_bits=16
conf_size=268435456
default_p_state=UNDEFINED
eventq_index=0
p_state_clk_gate_bins=20
p_state_clk_gate_max=1000000000000
p_state_clk_gate_min=1000
pci_dma_base=0
pci_mem_base=0
pci_pio_base=0
platform=testsys.realview
power_model=Null
system=testsys
pio=testsys.iobus.master[2]

[testsys.realview.realview_io]
type=RealViewCtrl
clk_domain=testsys.clk_domain
default_p_state=UNDEFINED
eventq_index=0
idreg=35979264
p_state_clk_gate_bins=20
p_state_clk_gate_max=1000000000000
p_state_clk_gate_min=1000
pio_addr=469827584
pio_latency=100000
power_model=Null
proc_id0=335544320
proc_id1=335544320
system=testsys
pio=testsys.iobus.master[1]

[testsys.realview.rtc]
type=PL031
amba_id=3412017
clk_domain=testsys.clk_domain
default_p_state=UNDEFINED
eventq_index=0
gic=testsys.realview.gic
int_delay=100000
int_num=36
p_state_clk_gate_bins=20
p_state_clk_gate_max=1000000000000
p_state_clk_gate_min=1000
pio_addr=471269376
pio_latency=100000
power_model=Null
system=testsys
time=Thu Jan  1 00:00:00 2009
pio=testsys.iobus.master[9]

[testsys.realview.sp810_fake]
type=AmbaFake
amba_id=0
clk_domain=testsys.clk_domain
default_p_state=UNDEFINED
eventq_index=0
ignore_access=true
p_state_clk_gate_bins=20
p_state_clk_gate_max=1000000000000
p_state_clk_gate_min=1000
pio_addr=469893120
pio_latency=100000
power_model=Null
system=testsys
pio=testsys.iobus.master[14]

[testsys.realview.timer0]
type=Sp804
amba_id=1316868
clk_domain=testsys.clk_domain
clock0=1000000
clock1=1000000
default_p_state=UNDEFINED
eventq_index=0
gic=testsys.realview.gic
int_num0=34
int_num1=34
p_state_clk_gate_bins=20
p_state_clk_gate_max=1000000000000
p_state_clk_gate_min=1000
pio_addr=470876160
pio_latency=100000
power_model=Null
system=testsys
pio=testsys.iobus.master[3]

[testsys.realview.timer1]
type=Sp804
amba_id=1316868
clk_domain=testsys.clk_domain
clock0=1000000
clock1=1000000
default_p_state=UNDEFINED
eventq_index=0
gic=testsys.realview.gic
int_num0=35
int_num1=35
p_state_clk_gate_bins=20
p_state_clk_gate_max=1000000000000
p_state_clk_gate_min=1000
pio_addr=470941696
pio_latency=100000
power_model=Null
system=testsys
pio=testsys.iobus.master[4]

[testsys.realview.uart]
type=Pl011
clk_domain=testsys.clk_domain
default_p_state=UNDEFINED
end_on_eot=false
eventq_index=0
gic=testsys.realview.gic
int_delay=100000
int_num=37
p_state_clk_gate_bins=20
p_state_clk_gate_max=1000000000000
p_state_clk_gate_min=1000
pio_addr=470351872
pio_latency=100000
platform=testsys.realview
power_model=Null
system=testsys
terminal=testsys.terminal
pio=testsys.iobus.master[0]

[testsys.realview.uart1_fake]
type=AmbaFake
amba_id=0
clk_domain=testsys.clk_domain
default_p_state=UNDEFINED
eventq_index=0
ignore_access=false
p_state_clk_gate_bins=20
p_state_clk_gate_max=1000000000000
p_state_clk_gate_min=1000
pio_addr=470417408
pio_latency=100000
power_model=Null
system=testsys
pio=testsys.iobus.master[11]

[testsys.realview.uart2_fake]
type=AmbaFake
amba_id=0
clk_domain=testsys.clk_domain
default_p_state=UNDEFINED
eventq_index=0
ignore_access=false
p_state_clk_gate_bins=20
p_state_clk_gate_max=1000000000000
p_state_clk_gate_min=1000
pio_addr=470482944
pio_latency=100000
power_model=Null
system=testsys
pio=testsys.iobus.master[12]

[testsys.realview.uart3_fake]
type=AmbaFake
amba_id=0
clk_domain=testsys.clk_domain
default_p_state=UNDEFINED
eventq_index=0
ignore_access=false
p_state_clk_gate_bins=20
p_state_clk_gate_max=1000000000000
p_state_clk_gate_min=1000
pio_addr=470548480
pio_latency=100000
power_model=Null
system=testsys
pio=testsys.iobus.master[13]

[testsys.realview.usb_fake]
type=IsaFake
clk_domain=testsys.clk_domain
default_p_state=UNDEFINED
eventq_index=0
fake_mem=false
p_state_clk_gate_bins=20
p_state_clk_gate_max=1000000000000
p_state_clk_gate_min=1000
pio_addr=452984832
pio_latency=100000
pio_size=131071
power_model=Null
ret_bad_addr=false
ret_data16=65535
ret_data32=4294967295
ret_data64=18446744073709551615
ret_data8=255
system=testsys
update_data=false
warn_access=
pio=testsys.iobus.master[18]

[testsys.realview.vgic]
type=VGic
clk_domain=testsys.clk_domain
default_p_state=UNDEFINED
eventq_index=0
gic=testsys.realview.gic
hv_addr=738213888
p_state_clk_gate_bins=20
p_state_clk_gate_max=1000000000000
p_state_clk_gate_min=1000
pio_delay=10000
platform=testsys.realview
power_model=Null
ppint=25
system=testsys
vcpu_addr=738222080
pio=testsys.membus.master[3]

[testsys.realview.vram]
type=SimpleMemory
bandwidth=73.000000
clk_domain=testsys.clk_domain
conf_table_reported=false
default_p_state=UNDEFINED
eventq_index=0
in_addr_map=true
kvm_map=true
latency=30000
latency_var=0
null=false
p_state_clk_gate_bins=20
p_state_clk_gate_max=1000000000000
p_state_clk_gate_min=1000
power_model=Null
range=402653184:436207615:0:0:0:0

[testsys.realview.watchdog_fake]
type=AmbaFake
amba_id=0
clk_domain=testsys.clk_domain
default_p_state=UNDEFINED
eventq_index=0
ignore_access=false
p_state_clk_gate_bins=20
p_state_clk_gate_max=1000000000000
p_state_clk_gate_min=1000
pio_addr=470745088
pio_latency=100000
power_model=Null
system=testsys
pio=testsys.iobus.master[15]

[testsys.terminal]
type=Terminal
eventq_index=0
intr_control=testsys.intrctrl
number=0
output=true
port=3001

[testsys.vncserver]
type=VncServer
eventq_index=0
frame_capture=false
number=0
port=5900

[testsys.voltage_domain]
type=VoltageDomain
eventq_index=0
voltage=1.000000

